43
                    3D
 Structure written by MMmdl.
 23 23  0  0  1  0            999 V2000
   27.3206    0.2092  -11.5444 C   0  0  0  0  0  0
   24.8104   -0.0377  -11.5023 C   0  0  0  0  0  0
   26.0342   -0.2249  -10.8317 C   0  0  0  0  0  0
   26.0391   -0.7726   -9.5293 C   0  0  0  0  0  0
   24.8129   -1.0870   -8.9213 C   0  0  0  0  0  0
   23.6118   -0.9391   -9.6083 C   0  0  0  0  0  0
   23.6108   -0.4248  -10.9220 C   0  0  0  0  0  0
   22.4761   -0.3049  -11.6918 O   0  0  0  0  0  0
   27.5401   -1.0912   -8.5545 S   0  0  0  0  0  0
   27.1859   -2.0084   -7.4841 O   0  0  0  0  0  0
   28.6206   -1.4509   -9.4586 O   0  0  0  0  0  0
   27.9627    0.5938   -7.7916 C   0  0  0  0  0  0
   27.7984    1.5671   -8.6677 F   0  0  0  0  0  0
   27.0861    0.7983   -6.7353 F   0  0  0  0  0  0
   24.7409    0.7017  -13.0762 Cl  0  0  0  0  0  0
   27.6879    1.5242  -11.1857 O   0  0  0  0  0  0
   28.1313   -0.4949  -11.3851 H   0  0  0  0  0  0
   27.2003    0.1946  -12.6299 H   0  0  0  0  0  0
   24.7742   -1.4735   -7.9133 H   0  0  0  0  0  0
   22.6888   -1.2338   -9.1280 H   0  0  0  0  0  0
   28.9730    0.5924   -7.4558 H   0  0  0  0  0  0
   28.4959    1.7705  -11.6621 H   0  0  0  0  0  0
   21.7143   -0.6006  -11.1880 H   0  0  0  0  0  0
  1  3  1  0  0  0
  1 16  1  0  0  0
  1 17  1  0  0  0
  1 18  1  0  0  0
  2  3  2  0  0  0
  2  7  1  0  0  0
  2 15  1  0  0  0
  3  4  1  0  0  0
  4  5  2  0  0  0
  4  9  1  0  0  0
  5  6  1  0  0  0
  5 19  1  0  0  0
  6  7  2  0  0  0
  6 20  1  0  0  0
  7  8  1  0  0  0
  8 23  1  0  0  0
  9 10  2  0  0  0
  9 11  2  0  0  0
  9 12  1  0  0  0
 12 13  1  0  0  0
 12 14  1  0  0  0
 12 21  1  0  0  0
 16 22  1  0  0  0
M  END
> <s_m_entry_id>
8

> <s_m_entry_name>
ligands_40.2

> <s_m_Source_Path>
/home/yutong/Code/timemachine/timemachine/testsystems/data

> <s_m_Source_File>
ligands_40.sdf

> <i_m_Source_File_Index>
2

> <ID>
43

> <IC50[uM](SPA)>
0.42

> <chiral flag>
1

> <version>
0

> <s_m_subgroup_title>
ligands_40

> <s_m_subgroupid>
ligands_40

> <b_m_subgroup_collapsed>
0

$$$$
1
                    3D
 Structure written by MMmdl.
 27 28  0  0  1  0            999 V2000
   27.5742    1.5579  -11.2202 O   0  0  0  0  0  0
   27.1479    0.2994  -11.6692 C   0  0  2  0  0  0
   26.5267    0.4129  -13.0689 C   0  0  0  0  0  0
   25.0255    0.5956  -12.8327 C   0  0  0  0  0  0
   24.8103   -0.0581  -11.4965 C   0  0  0  0  0  0
   26.0181   -0.2298  -10.8141 C   0  0  0  0  0  0
   26.0198   -0.7704   -9.5145 C   0  0  0  0  0  0
   24.8035   -1.0882   -8.9011 C   0  0  0  0  0  0
   23.6009   -0.9385   -9.5957 C   0  0  0  0  0  0
   23.6036   -0.4366  -10.9003 C   0  0  0  0  0  0
   22.4827   -0.2805  -11.6905 O   0  0  0  0  0  0
   27.5319   -1.0654   -8.5874 S   0  0  0  0  0  0
   27.2277   -2.0226   -7.5192 O   0  0  0  0  0  0
   28.5861   -1.3956   -9.5458 O   0  0  0  0  0  0
   27.9385    0.6243   -7.8274 C   0  0  0  0  0  0
   27.8181    1.5522   -8.7360 F   0  0  0  0  0  0
   27.1029    0.8106   -6.7934 F   0  0  0  0  0  0
   28.3584    1.8102  -11.7281 H   0  0  0  0  0  0
   27.9789   -0.4080  -11.7029 H   0  0  0  0  0  0
   26.6995   -0.5291  -13.6482 H   0  0  0  0  0  0
   26.9532    1.2021  -13.6359 H   0  0  0  0  0  0
   24.7973    1.6781  -12.7806 H   0  0  0  0  0  0
   24.4358    0.1715  -13.6220 H   0  0  0  0  0  0
   24.7794   -1.4657   -7.8911 H   0  0  0  0  0  0
   22.6812   -1.2310   -9.1144 H   0  0  0  0  0  0
   28.9678    0.5905   -7.4583 H   0  0  0  0  0  0
   21.7053   -0.5633  -11.2034 H   0  0  0  0  0  0
  1  2  1  0  0  0
  1 18  1  0  0  0
  2  3  1  0  0  0
  2  6  1  0  0  0
  2 19  1  0  0  0
  3  4  1  0  0  0
  3 20  1  0  0  0
  3 21  1  0  0  0
  4  5  1  0  0  0
  4 22  1  0  0  0
  4 23  1  0  0  0
  5  6  2  0  0  0
  5 10  1  0  0  0
  6  7  1  0  0  0
  7  8  2  0  0  0
  7 12  1  0  0  0
  8  9  1  0  0  0
  8 24  1  0  0  0
  9 10  2  0  0  0
  9 25  1  0  0  0
 10 11  1  0  0  0
 11 27  1  0  0  0
 12 13  2  0  0  0
 12 14  2  0  0  0
 12 15  1  0  0  0
 15 16  1  0  0  0
 15 17  1  0  0  0
 15 26  1  0  0  0
M  END
> <s_m_entry_id>
12

> <s_m_entry_name>
ligands_40.6

> <s_m_Source_Path>
/home/yutong/Code/timemachine/timemachine/testsystems/data

> <s_m_Source_File>
ligands_40.sdf

> <i_m_Source_File_Index>
6

> <ID>
1

> <IC50[uM](SPA)>
0.005

> <chiral flag>
1

> <version>
0

> <s_m_subgroup_title>
ligands_40

> <s_m_subgroupid>
ligands_40

> <b_m_subgroup_collapsed>
0

$$$$
