@<TRIPOS>MOLECULE
BRD4, Ligand 4
   22    23     1     0     0
SMALL
Current Charge


@<TRIPOS>ATOM
      1 OAM          2.0570    -4.8250    10.0430 O.2        1 15F      -0.657500
      2 CAH          2.2400    -3.7540    10.6870 C.2        1 15F       0.809500
      3 NAG          2.7280    -3.7680    12.0360 N.am       1 15F      -0.468100
      4 CAD          2.5890    -2.6440    12.8810 C.ar       1 15F       0.107600
      5 CAC          2.6070    -2.7850    14.2840 C.ar       1 15F      -0.184000
      6 CAB          2.4460    -1.6990    15.1050 C.ar       1 15F      -0.062000
      7 CAA          2.2740    -0.4380    14.5660 C.ar       1 15F      -0.064900
      8 Br           2.1310     1.0990    15.7350 Br         1 15F      -0.083100
      9 CAF          2.3150    -0.2740    13.1790 C.ar       1 15F      -0.059000
     10 CAE          2.4260    -1.3780    12.3190 C.ar       1 15F      -0.153300
     11 CAJ          2.4780    -1.2660    10.8920 C.3        1 15F       0.146300
     12 NAI          2.0200    -2.5260    10.1550 N.am       1 15F      -0.458800
     13 CAL          1.6400    -2.3580     8.7460 C.3        1 15F       0.081300
     14 H            3.1690    -4.5780    12.3800 H          1 15F       0.346500
     15 H1           2.7430    -3.7200    14.6990 H          1 15F       0.144000
     16 H2           2.4530    -1.8240    16.1290 H          1 15F       0.150000
     17 H3           2.2630     0.6760    12.7790 H          1 15F       0.149000
     18 H4           1.8480    -0.4540    10.5940 H          1 15F       0.051200
     19 H5           3.5030    -1.1080    10.6300 H          1 15F       0.051200
     20 H6           1.3400    -3.3030     8.3420 H          1 15F       0.051367
     21 H7           2.4760    -1.9830     8.1930 H          1 15F       0.051367
     22 H8           0.8270    -1.6660     8.6760 H          1 15F       0.051367
@<TRIPOS>BOND
     1     1     2 2   
     2     2     3 am  
     3     2    12 am  
     4     3     4 1   
     5     3    14 1   
     6     4     5 ar  
     7     4    10 ar  
     8     5     6 ar  
     9     5    15 1   
    10     6     7 ar  
    11     6    16 1   
    12     7     8 1   
    13     7     9 ar  
    14     9    10 ar  
    15     9    17 1   
    16    10    11 1   
    17    11    12 1   
    18    11    18 1   
    19    11    19 1   
    20    12    13 1   
    21    13    20 1   
    22    13    21 1   
    23    13    22 1   
@<TRIPOS>SUBSTRUCTURE
     1 15F         1 TEMP              0 ****  ****    0 ROOT
