@<TRIPOS>MOLECULE
BRD4, Ligand 2
   28    30     1     0     0
SMALL
Current Charge


@<TRIPOS>ATOM
      1 C4           2.3290    -0.4450    12.7930 C.ar       1 25O      -0.070000
      2 C5           2.7590     0.8410    12.6090 C.ar       1 25O      -0.089500
      3 C6           2.6270     1.7630    13.6140 C.ar       1 25O      -0.136500
      4 C11          2.8130    -4.6970    13.0350 C.2        1 25O       0.705200
      5 C7           2.0240     1.4500    14.7790 C.ar       1 25O      -0.109000
      6 C8           1.5500     0.2180    14.9900 C.ar       1 25O      -0.136500
      7 C9           1.7130    -0.7570    14.0030 C.ar       1 25O      -0.089500
      8 C10          2.3660    -3.8640    11.0930 C.2        1 25O       0.418500
      9 N1           2.0930    -3.6140     9.8130 N.2        1 25O      -0.637000
     10 N2           2.5720    -5.0630    11.7030 N.2        1 25O      -0.393300
     11 C3           2.2010    -1.4470    11.7510 C.2        1 25O       0.118700
     12 N3           3.1010    -5.7000    13.9740 N.3        1 25O      -0.850800
     13 C1           1.8860    -2.2960     9.4870 C.2        1 25O       0.469600
     14 C            1.5410    -1.8970     8.0400 C.3        1 25O      -0.157400
     15 N4           2.7610    -3.3370    13.3270 N.2        1 25O      -0.628100
     16 N            2.4620    -2.7980    12.1030 N.pl3      1 25O       0.025200
     17 C2           1.9410    -1.2450    10.4130 C.2        1 25O      -0.324300
     18 H            3.1840     1.1170    11.7100 H          1 25O       0.146000
     19 H1           2.9970     2.7170    13.4770 H          1 25O       0.138000
     20 H2           1.9280     2.1680    15.5140 H          1 25O       0.136000
     21 H3           1.0680    -0.0110    15.8740 H          1 25O       0.138000
     22 H4           1.3740    -1.7170    14.1720 H          1 25O       0.146000
     23 H5           3.1210    -6.6440    13.6950 H          1 25O       0.413800
     24 H6           3.2830    -5.4590    14.9110 H          1 25O       0.413800
     25 H7           1.5260    -2.7710     7.4230 H          1 25O       0.063033
     26 H8           2.2780    -1.2140     7.6730 H          1 25O       0.063033
     27 H9           0.5790    -1.4290     8.0190 H          1 25O       0.063033
     28 H10          1.7800    -0.2820    10.0790 H          1 25O       0.164000
@<TRIPOS>BOND
     1     1     2 ar  
     2     1     7 ar  
     3     1    11 1   
     4     2     3 ar  
     5     2    18 1   
     6     3     5 ar  
     7     3    19 1   
     8     4    10 1   
     9     4    12 1   
    10     4    15 2   
    11     5     6 ar  
    12     5    20 1   
    13     6     7 ar  
    14     6    21 1   
    15     7    22 1   
    16     8     9 1   
    17     8    10 2   
    18     8    16 1   
    19     9    13 2   
    20    11    16 1   
    21    11    17 2   
    22    12    23 1   
    23    12    24 1   
    24    13    14 1   
    25    13    17 1   
    26    14    25 1   
    27    14    26 1   
    28    14    27 1   
    29    15    16 1   
    30    17    28 1   
@<TRIPOS>SUBSTRUCTURE
     1 25O         1 TEMP              0 ****  ****    0 ROOT
