@<TRIPOS>MOLECULE
BRD4, Ligand 6
   49    51     1     0     0
SMALL
Current Charge


@<TRIPOS>ATOM
      1 O1           2.5440     1.0790    12.3730 O.3        1 1K0      -0.324900
      2 C1           2.6960     1.5850    13.7160 C.3        1 1K0       0.111700
      3 C2           2.5440    -0.3150    12.2440 C.ar       1 1K0       0.198100
      4 C3           2.3270    -0.8650    10.9970 C.ar       1 1K0      -0.271000
      5 C4           2.2710    -2.2500    10.8730 C.ar       1 1K0       0.225100
      6 N1           2.5640    -5.2610    13.0620 N.am       1 1K0      -0.499400
      7 C5           1.5670    -1.9880     8.4960 C.3        1 1K0       0.107700
      8 O2           2.0400    -2.8230     9.6390 O.3        1 1K0      -0.288900
      9 C6           2.4560    -3.0890    11.9740 C.ar       1 1K0      -0.253600
     10 O3           4.2340    -7.9140    18.6430 O.3        1 1K0      -0.340900
     11 N2           2.8670    -3.2920    14.4230 N.2        1 1K0      -0.633100
     12 C7           2.3840    -4.5480    11.8210 C.2        1 1K0       0.721100
     13 C8           2.7770    -4.6200    14.2770 C.2        1 1K0       0.558500
     14 O4           6.1530    -9.4750    20.2080 O.3        1 1K0      -0.599800
     15 O5           2.2030    -5.2120    10.7900 O.2        1 1K0      -0.602500
     16 C9           3.0080    -5.4910    15.5000 C.ar       1 1K0      -0.151900
     17 C18          3.2760    -6.8410    15.3030 C.ar       1 1K0      -0.092500
     18 C16          3.6340    -7.6610    16.3800 C.ar       1 1K0      -0.088800
     19 C17          3.9320    -9.1210    16.1180 C.3        1 1K0      -0.056300
     20 C13          3.7410    -7.1070    17.6250 C.ar       1 1K0       0.109100
     21 C14          5.6580    -7.7100    18.7820 C.3        1 1K0       0.126400
     22 C15          6.2500    -9.1430    18.8430 C.3        1 1K0       0.097400
     23 C11          3.4820    -5.7410    17.8840 C.ar       1 1K0      -0.088800
     24 C12          3.6820    -5.1610    19.2650 C.3        1 1K0      -0.056300
     25 C10          3.0890    -4.9160    16.8020 C.ar       1 1K0      -0.092500
     26 C19          2.7030    -2.5300    13.2410 C.ar       1 1K0       0.251400
     27 C20          2.7640    -1.1260    13.3960 C.ar       1 1K0      -0.245000
     28 H            2.6820     2.6550    13.6980 H          1 1K0       0.049367
     29 H1           3.6270     1.2470    14.1210 H          1 1K0       0.049367
     30 H2           1.8920     1.2280    14.3250 H          1 1K0       0.049367
     31 H3           2.2080    -0.2590    10.1700 H          1 1K0       0.160000
     32 H4           2.5350    -6.2450    13.0480 H          1 1K0       0.338500
     33 H5           1.4460    -2.6050     7.6300 H          1 1K0       0.049700
     34 H6           2.2870    -1.2230     8.2910 H          1 1K0       0.049700
     35 H7           0.6300    -1.5370     8.7470 H          1 1K0       0.049700
     36 H8           6.5040   -10.3680    20.3490 H          1 1K0       0.406000
     37 H9           3.2100    -7.2420    14.3540 H          1 1K0       0.148500
     38 H10          3.7840    -9.3350    15.0800 H          1 1K0       0.052033
     39 H11          3.2760    -9.7300    16.7050 H          1 1K0       0.052033
     40 H12          4.9470    -9.3310    16.3840 H          1 1K0       0.052033
     41 H13          5.8770    -7.1710    19.6800 H          1 1K0       0.070200
     42 H14          6.0670    -7.1340    17.9790 H          1 1K0       0.070200
     43 H15          7.2690    -9.1510    18.5180 H          1 1K0       0.033700
     44 H16          5.7390    -9.8350    18.2060 H          1 1K0       0.033700
     45 H17          3.4340    -4.1200    19.2540 H          1 1K0       0.052033
     46 H18          4.7040    -5.2810    19.5580 H          1 1K0       0.052033
     47 H19          3.0500    -5.6710    19.9610 H          1 1K0       0.052033
     48 H20          2.8660    -3.9200    16.9530 H          1 1K0       0.148500
     49 H21          2.9620    -0.7010    14.3150 H          1 1K0       0.159000
@<TRIPOS>BOND
     1     1     2 1   
     2     1     3 1   
     3     2    28 1   
     4     2    29 1   
     5     2    30 1   
     6     3     4 ar  
     7     3    27 ar  
     8     4     5 ar  
     9     4    31 1   
    10     5     8 1   
    11     5     9 ar  
    12     6    12 am  
    13     6    13 1   
    14     6    32 1   
    15     7     8 1   
    16     7    33 1   
    17     7    34 1   
    18     7    35 1   
    19     9    12 1   
    20     9    26 ar  
    21    10    20 1   
    22    10    21 1   
    23    11    13 2   
    24    11    26 1   
    25    12    15 2   
    26    13    16 1   
    27    14    22 1   
    28    14    36 1   
    29    16    17 ar  
    30    16    25 ar  
    31    17    18 ar  
    32    17    37 1   
    33    18    19 1   
    34    18    20 ar  
    35    19    38 1   
    36    19    39 1   
    37    19    40 1   
    38    20    23 ar  
    39    21    22 1   
    40    21    41 1   
    41    21    42 1   
    42    22    43 1   
    43    22    44 1   
    44    23    24 1   
    45    23    25 ar  
    46    24    45 1   
    47    24    46 1   
    48    24    47 1   
    49    25    48 1   
    50    26    27 ar  
    51    27    49 1   
@<TRIPOS>SUBSTRUCTURE
     1 1K0         1 TEMP              0 ****  ****    0 ROOT
