@<TRIPOS>MOLECULE
BRD4, Ligand 5
   37    40     1     0     0
SMALL
Current Charge


@<TRIPOS>ATOM
      1 CAS          2.1290    -0.9870    13.1590 C.ar       1 08H      -0.067300
      2 CAJ          2.3790     0.2880    13.6910 C.ar       1 08H      -0.113000
      3 CAP          2.9870     1.2310    12.8720 C.ar       1 08H       0.014400
      4 ClAB         3.3180     2.8300    13.4830 Cl         1 08H      -0.079400
      5 CAH          3.3260     0.9880    11.5350 C.ar       1 08H      -0.109000
      6 CAI          3.0650    -0.2910    11.0120 C.ar       1 08H      -0.141000
      7 CAU          2.4600    -1.2450    11.8200 C.ar       1 08H       0.030800
      8 NAV          2.2610    -2.4640    11.1890 N.pl3      1 08H      -0.255800
      9 CAR          1.8610    -2.7750     9.9270 C.2        1 08H       0.373800
     10 CAA          1.4310    -1.8170     8.8000 C.3        1 08H      -0.123400
     11 NAM          1.8340    -4.1020     9.7850 N.2        1 08H      -0.349000
     12 NAN          2.2330    -4.6440    10.8780 N.2        1 08H      -0.341000
     13 CAT          2.4940    -3.6520    11.7600 C.2        1 08H       0.375800
     14 CAK          2.8900    -3.8190    13.1940 C.3        1 08H       0.160500
     15 NAL          1.7470    -3.2490    13.9570 N.3        1 08H      -0.856200
     16 CAO          1.5060    -1.9220    14.0440 C.3        1 08H       0.294100
     17 CAQ          0.3490    -1.5560    14.8260 C.ar       1 08H      -0.100300
     18 CAF         -0.3930    -0.4170    14.5250 C.ar       1 08H      -0.111000
     19 CAD         -1.5570    -0.0930    15.2240 C.ar       1 08H      -0.132500
     20 CAC         -2.0000    -0.8770    16.2860 C.ar       1 08H      -0.121000
     21 CAE         -1.2580    -1.9990    16.5980 C.ar       1 08H      -0.132500
     22 CAG         -0.1050    -2.3250    15.8900 C.ar       1 08H      -0.111000
     23 H            2.1190     0.5180    14.6630 H          1 08H       0.157000
     24 H1           3.7540     1.7240    10.9520 H          1 08H       0.155000
     25 H2           3.3200    -0.5180    10.0380 H          1 08H       0.152000
     26 H3           1.1760    -2.3830     7.9290 H          1 08H       0.063033
     27 H4           2.2370    -1.1520     8.5700 H          1 08H       0.063033
     28 H5           0.5810    -1.2500     9.1190 H          1 08H       0.063033
     29 H6           3.7920    -3.2820    13.4040 H          1 08H       0.064700
     30 H7           3.0850    -4.8400    13.4490 H          1 08H       0.064700
     31 H8           1.8580    -3.5770    14.9160 H          1 08H       0.398800
     32 H9           2.3200    -1.5980    14.6580 H          1 08H       0.026700
     33 H10         -0.0740     0.2040    13.7650 H          1 08H       0.140500
     34 H11         -2.0980     0.7420    14.9490 H          1 08H       0.134500
     35 H12         -2.8490    -0.6300    16.8180 H          1 08H       0.134000
     36 H13         -1.5650    -2.6080    17.3720 H          1 08H       0.134500
     37 H14          0.4290    -3.1640    16.1640 H          1 08H       0.140500
@<TRIPOS>BOND
     1     1     2 ar  
     2     1     7 ar  
     3     1    16 1   
     4     2     3 ar  
     5     2    23 1   
     6     3     4 1   
     7     3     5 ar  
     8     5     6 ar  
     9     5    24 1   
    10     6     7 ar  
    11     6    25 1   
    12     7     8 1   
    13     8     9 1   
    14     8    13 1   
    15     9    10 1   
    16     9    11 2   
    17    10    26 1   
    18    10    27 1   
    19    10    28 1   
    20    11    12 1   
    21    12    13 2   
    22    13    14 1   
    23    14    15 1   
    24    14    29 1   
    25    14    30 1   
    26    15    16 1   
    27    15    31 1   
    28    16    17 1   
    29    16    32 1   
    30    17    18 ar  
    31    17    22 ar  
    32    18    19 ar  
    33    18    33 1   
    34    19    20 ar  
    35    19    34 1   
    36    20    21 ar  
    37    20    35 1   
    38    21    22 ar  
    39    21    36 1   
    40    22    37 1   
@<TRIPOS>SUBSTRUCTURE
     1 08H         1 TEMP              0 ****  ****    0 ROOT
