@<TRIPOS>MOLECULE
BRD4, Ligand 8
   42    44     1     0     0
SMALL
Current Charge


@<TRIPOS>ATOM
      1 O1           3.3590     6.0150    13.0690 O.3        1 1K0      -0.324900
      2 C1           3.4800     6.2060    11.6760 C.3        1 1K0       0.111700
      3 C2           3.2320     4.7640    13.6200 C.ar       1 1K0       0.198100
      4 C3           3.2490     4.6200    15.0170 C.ar       1 1K0      -0.272000
      5 C4           3.1460     3.4130    15.6180 C.ar       1 1K0       0.225100
      6 N1           2.8600    -0.1910    14.5760 N.am       1 1K0      -0.499400
      7 C5           3.1640     4.4600    17.8150 C.3        1 1K0       0.107700
      8 O2           3.1130     3.2650    17.0000 O.3        1 1K0      -0.288900
      9 C6           3.0390     2.2280    14.8720 C.ar       1 1K0      -0.253600
     10 O3           2.2700    -4.7190    10.2560 O.3        1 1K0      -0.492100
     11 N2           2.9640     1.2430    12.6620 N.2        1 1K0      -0.637100
     12 C7           2.9420     0.9190    15.4510 C.2        1 1K0       0.721100
     13 C8           2.8810     0.0150    13.2310 C.2        1 1K0       0.564500
     14 O5           2.9580     0.6740    16.6750 O.2        1 1K0      -0.603500
     15 C9           2.7950    -1.1630    12.3520 C.ar       1 1K0      -0.182900
     16 C18          2.2000    -1.1600    11.0730 C.ar       1 1K0      -0.064000
     17 C16          2.0370    -2.3470    10.3720 C.ar       1 1K0      -0.131800
     18 C17          1.3240    -2.2540     9.0610 C.3        1 1K0      -0.050800
     19 C13          2.5090    -3.5740    10.9120 C.ar       1 1K0       0.143100
     20 C11          3.1500    -3.5880    12.1430 C.ar       1 1K0      -0.131800
     21 C12          3.6620    -4.8880    12.6860 C.3        1 1K0      -0.050800
     22 C10          3.2880    -2.4170    12.8540 C.ar       1 1K0      -0.064000
     23 C19          3.0310     2.4050    13.4570 C.ar       1 1K0       0.252400
     24 C20          3.1180     3.6350    12.8260 C.ar       1 1K0      -0.246000
     25 H            3.5670     7.2520    11.4660 H          1 1K0       0.048700
     26 H1           2.6130     5.8140    11.1860 H          1 1K0       0.048700
     27 H2           4.3520     5.6970    11.3210 H          1 1K0       0.048700
     28 H3           3.3430     5.4630    15.6040 H          1 1K0       0.160000
     29 H4           2.7880    -1.1040    14.9370 H          1 1K0       0.337500
     30 H5           3.1300     4.1880    18.8490 H          1 1K0       0.049700
     31 H6           2.3270     5.0860    17.5830 H          1 1K0       0.049700
     32 H7           4.0720     4.9900    17.6150 H          1 1K0       0.049700
     33 H8           1.8370    -4.7010     9.4250 H          1 1K0       0.425000
     34 H9           1.8840    -0.2700    10.6560 H          1 1K0       0.148500
     35 H10          1.2610    -3.2270     8.6190 H          1 1K0       0.049367
     36 H11          1.8630    -1.6000     8.4080 H          1 1K0       0.049367
     37 H12          0.3380    -1.8690     9.2180 H          1 1K0       0.049367
     38 H13          3.4580    -5.6720    11.9870 H          1 1K0       0.049367
     39 H14          3.1760    -5.1030    13.6140 H          1 1K0       0.049367
     40 H15          4.7180    -4.8170    12.8440 H          1 1K0       0.049367
     41 H16          3.7580    -2.4400    13.7720 H          1 1K0       0.148500
     42 H17          3.0980     3.7080    11.7970 H          1 1K0       0.158000
@<TRIPOS>BOND
     1     1     2 1   
     2     1     3 1   
     3     2    25 1   
     4     2    26 1   
     5     2    27 1   
     6     3     4 ar  
     7     3    24 ar  
     8     4     5 ar  
     9     4    28 1   
    10     5     8 1   
    11     5     9 ar  
    12     6    12 am  
    13     6    13 1   
    14     6    29 1   
    15     7     8 1   
    16     7    30 1   
    17     7    31 1   
    18     7    32 1   
    19     9    12 1   
    20     9    23 ar  
    21    10    19 1   
    22    10    33 1   
    23    11    13 2   
    24    11    23 1   
    25    12    14 2   
    26    13    15 1   
    27    15    16 ar  
    28    15    22 ar  
    29    16    17 ar  
    30    16    34 1   
    31    17    18 1   
    32    17    19 ar  
    33    18    35 1   
    34    18    36 1   
    35    18    37 1   
    36    19    20 ar  
    37    20    21 1   
    38    20    22 ar  
    39    21    38 1   
    40    21    39 1   
    41    21    40 1   
    42    22    41 1   
    43    23    24 ar  
    44    24    42 1   
@<TRIPOS>SUBSTRUCTURE
     1 1K0         1 TEMP              0 ****  ****    0 ROOT
