@<TRIPOS>MOLECULE
BRD4, Ligand 9
   56    59     1     0     0
SMALL
Current Charge


@<TRIPOS>ATOM
      1 CAA          1.6700    -1.8220     8.9660 C.3        1 JQ1      -0.124400
      2 CAB          3.5630     2.5900    12.6940 C.3        1 JQ1      -0.025800
      3 CAC          2.1860     1.0680    15.0570 C.3        1 JQ1      -0.040800
      4 CAD          2.4750    -3.5130    18.0630 C.3        1 JQ1      -0.112100
      5 CAE          4.8380    -4.4980    18.2330 C.3        1 JQ1      -0.112100
      6 CAF          4.4780    -2.1360    17.5320 C.3        1 JQ1      -0.112100
      7 OAG          2.9210    -5.9690    16.2840 O.2        1 JQ1      -0.542000
      8 ClAH        -3.5980    -0.0260    17.1610 Cl         1 JQ1      -0.089400
      9 CAI         -1.6650     0.2210    15.2970 C.ar       1 JQ1      -0.131000
     10 CAJ         -1.5000    -1.7310    16.6620 C.ar       1 JQ1      -0.131000
     11 CAK         -0.5210    -0.1750    14.5970 C.ar       1 JQ1      -0.091500
     12 CAL         -0.3720    -2.1360    15.9570 C.ar       1 JQ1      -0.091500
     13 CAM          3.1090    -5.0610    14.0560 C.3        1 JQ1      -0.107400
     14 NAN          1.5850    -3.0930    14.2270 N.2        1 JQ1      -0.576900
     15 NAO          2.0240    -4.0930    10.0460 N.2        1 JQ1      -0.337000
     16 NAP          2.3110    -4.5930    11.1920 N.2        1 JQ1      -0.332000
     17 OAQ          3.7400    -3.8820    16.0700 O.3        1 JQ1      -0.454900
     18 SAR          3.1990     0.1300    11.2480 S.3        1 JQ1       0.053200
     19 CAS          3.2440    -5.0120    15.5820 C.2        1 JQ1       0.652100
     20 CAT          1.3260    -1.7750    14.2070 C.2        1 JQ1       0.558500
     21 CAU         -2.1710    -0.5630    16.3070 C.ar       1 JQ1       0.026400
     22 CAV          2.0010    -2.7530    10.1340 C.2        1 JQ1       0.378800
     23 CAW          0.1430    -1.3530    14.9100 C.ar       1 JQ1      -0.132900
     24 CAX          3.0370     1.1350    12.6420 C.2        1 JQ1      -0.117400
     25 CAY          2.4210     0.4380    13.6740 C.2        1 JQ1      -0.058300
     26 CAZ          2.4840    -3.5660    12.0460 C.2        1 JQ1       0.359800
     27 CBA          2.0190    -0.8830    13.3360 C.2        1 JQ1      -0.208900
     28 CBB          2.3830    -1.1950    12.0120 C.2        1 JQ1      -0.013300
     29 CBC          2.7920    -3.6570    13.5550 C.3        1 JQ1       0.118200
     30 NBD          2.2600    -2.4130    11.4150 N.pl3      1 JQ1      -0.237800
     31 CBE          3.8730    -3.5440    17.5000 C.3        1 JQ1       0.173800
     32 H            1.5170    -2.4020     8.0800 H          1 JQ1       0.066367
     33 H1           2.4810    -1.1410     8.8110 H          1 JQ1       0.066367
     34 H2           0.7800    -1.2710     9.1900 H          1 JQ1       0.066367
     35 H3           3.9870     2.8500    11.7460 H          1 JQ1       0.053367
     36 H4           4.3120     2.6720    13.4540 H          1 JQ1       0.053367
     37 H5           2.7540     3.2540    12.9170 H          1 JQ1       0.053367
     38 H6           2.5750     2.0650    15.0660 H          1 JQ1       0.054367
     39 H7           2.6830     0.4850    15.8040 H          1 JQ1       0.054367
     40 H8           1.1360     1.0930    15.2640 H          1 JQ1       0.054367
     41 H9           1.8780    -2.8290    17.4970 H          1 JQ1       0.049700
     42 H10          2.5090    -3.1960    19.0840 H          1 JQ1       0.049700
     43 H11          2.0460    -4.4920    18.0070 H          1 JQ1       0.049700
     44 H12          5.8010    -4.4560    17.7690 H          1 JQ1       0.049700
     45 H13          4.4600    -5.4980    18.1800 H          1 JQ1       0.049700
     46 H14          4.9220    -4.2020    19.2580 H          1 JQ1       0.049700
     47 H15          3.8240    -1.4550    17.0280 H          1 JQ1       0.049700
     48 H16          5.4290    -2.1450    17.0420 H          1 JQ1       0.049700
     49 H17          4.6030    -1.8240    18.5480 H          1 JQ1       0.049700
     50 H18         -2.1330     1.1080    15.0540 H          1 JQ1       0.151000
     51 H19         -1.8420    -2.2990    17.4530 H          1 JQ1       0.151000
     52 H20         -0.1640     0.4200    13.8330 H          1 JQ1       0.148000
     53 H21          0.0930    -3.0230    16.2060 H          1 JQ1       0.148000
     54 H22          4.0270    -5.4000    13.6230 H          1 JQ1       0.101200
     55 H23          2.3260    -5.7360    13.7780 H          1 JQ1       0.101200
     56 H24          3.6870    -3.1150    13.7780 H          1 JQ1       0.088700
@<TRIPOS>BOND
     1     1    22 1   
     2     1    32 1   
     3     1    33 1   
     4     1    34 1   
     5     2    24 1   
     6     2    35 1   
     7     2    36 1   
     8     2    37 1   
     9     3    25 1   
    10     3    38 1   
    11     3    39 1   
    12     3    40 1   
    13     4    31 1   
    14     4    41 1   
    15     4    42 1   
    16     4    43 1   
    17     5    31 1   
    18     5    44 1   
    19     5    45 1   
    20     5    46 1   
    21     6    31 1   
    22     6    47 1   
    23     6    48 1   
    24     6    49 1   
    25     7    19 2   
    26     8    21 1   
    27     9    11 ar  
    28     9    21 ar  
    29     9    50 1   
    30    10    12 ar  
    31    10    21 ar  
    32    10    51 1   
    33    11    23 ar  
    34    11    52 1   
    35    12    23 ar  
    36    12    53 1   
    37    13    19 1   
    38    13    29 1   
    39    13    54 1   
    40    13    55 1   
    41    14    20 2   
    42    14    29 1   
    43    15    16 1   
    44    15    22 2   
    45    16    26 2   
    46    17    19 1   
    47    17    31 1   
    48    18    24 1   
    49    18    28 1   
    50    20    23 1   
    51    20    27 1   
    52    22    30 1   
    53    24    25 2   
    54    25    27 1   
    55    26    29 1   
    56    26    30 1   
    57    27    28 2   
    58    28    30 1   
    59    29    56 1   
@<TRIPOS>SUBSTRUCTURE
     1 JQ1         1 TEMP              0 ****  ****    0 ROOT
