@<TRIPOS>MOLECULE
BRD4, Ligand 3
   51    53     1     0     0
SMALL
Current Charge


@<TRIPOS>ATOM
      1 O4          -2.5980    -1.6620    17.4180 O.2        1 2SJ      -0.605100
      2 C12         -1.5620    -1.8410    16.7820 C.2        1 2SJ       0.661100
      3 C13         -1.0610    -3.2230    16.6120 C.3        1 2SJ      -0.170100
      4 N1          -0.8630    -0.8230    16.2620 N.am       1 2SJ      -0.571900
      5 C11          0.3210    -0.9980    15.4410 C.3        1 2SJ       0.133900
      6 C14          1.5100    -1.5290    16.2010 C.2        1 2SJ      -0.025200
      7 C15          1.5040    -1.3380    17.5310 C.2        1 2SJ      -0.241200
      8 C10          0.7010     0.3120    14.7470 C.3        1 2SJ      -0.077400
      9 C9           1.9070     0.1900    13.8120 C.3        1 2SJ      -0.040100
     10 C8           2.0470    -1.1760    13.1630 C.ar       1 2SJ      -0.035300
     11 C7           1.8890    -1.3140    11.7880 C.ar       1 2SJ      -0.197000
     12 C5           2.0180    -2.5530    11.1740 C.ar       1 2SJ       0.112100
     13 C3           2.2970    -3.6630    11.9290 C.ar       1 2SJ       0.049100
     14 C1           2.4760    -3.5350    13.2870 C.ar       1 2SJ       0.118100
     15 O1           2.7490    -4.6590    14.0140 O.3        1 2SJ      -0.332900
     16 C2           1.7330    -5.1660    14.8800 C.3        1 2SJ       0.117700
     17 O2           2.4860    -4.8720    11.3240 O.3        1 2SJ      -0.316900
     18 C4           1.4570    -5.8030    11.2690 C.3        1 2SJ       0.110700
     19 O3           1.8780    -2.7410     9.8250 O.3        1 2SJ      -0.323900
     20 C6           1.5630    -1.6740     8.9450 C.3        1 2SJ       0.111700
     21 C22          2.3450    -2.2940    13.9160 C.ar       1 2SJ      -0.078800
     22 C21          2.5380    -2.1990    15.4060 C.2        1 2SJ      -0.050200
     23 C20          3.6970    -2.7550    15.8300 C.2        1 2SJ      -0.046000
     24 C19          4.2500    -2.8990    17.1550 C.2        1 2SJ      -0.224000
     25 C17          3.7300    -2.4760    18.3070 C.2        1 2SJ       0.052900
     26 C16          2.4870    -1.7540    18.5270 C.2        1 2SJ       0.584500
     27 O5           2.2110    -1.4770    19.6910 O.2        1 2SJ      -0.499100
     28 O6           4.4140    -2.7540    19.3990 O.3        1 2SJ      -0.472100
     29 H           -0.1570    -3.2070    16.0390 H          1 2SJ       0.067367
     30 H1          -1.7970    -3.8090    16.1020 H          1 2SJ       0.067367
     31 H2          -0.8670    -3.6530    17.5730 H          1 2SJ       0.067367
     32 H3          -1.1690     0.0940    16.4470 H          1 2SJ       0.314500
     33 H4           0.0590    -1.7360    14.7120 H          1 2SJ       0.076700
     34 H5           0.6890    -0.8240    17.9010 H          1 2SJ       0.154000
     35 H6          -0.1380     0.6450    14.1730 H          1 2SJ       0.056200
     36 H7           0.9730     1.0040    15.5160 H          1 2SJ       0.056200
     37 H8           1.8090     0.9220    13.0380 H          1 2SJ       0.062200
     38 H9           2.7810     0.3400    14.4110 H          1 2SJ       0.062200
     39 H10          1.6730    -0.4830    11.2150 H          1 2SJ       0.144000
     40 H11          2.0930    -6.0420    15.3770 H          1 2SJ       0.043033
     41 H12          0.8650    -5.4130    14.3050 H          1 2SJ       0.043033
     42 H13          1.4800    -4.4220    15.6060 H          1 2SJ       0.043033
     43 H14          1.7970    -6.6800    10.7590 H          1 2SJ       0.046033
     44 H15          0.6250    -5.3840    10.7430 H          1 2SJ       0.046033
     45 H16          1.1570    -6.0620    12.2630 H          1 2SJ       0.046033
     46 H17          1.5020    -2.0440     7.9430 H          1 2SJ       0.048033
     47 H18          2.3260    -0.9260     9.0030 H          1 2SJ       0.048033
     48 H19          0.6230    -1.2470     9.2250 H          1 2SJ       0.048033
     49 H20          4.2860    -3.1420    15.0760 H          1 2SJ       0.157000
     50 H21          5.1570    -3.3880    17.2180 H          1 2SJ       0.138000
     51 H22          5.2260    -3.2180    19.3380 H          1 2SJ       0.421000
@<TRIPOS>BOND
     1     1     2 2   
     2     2     3 1   
     3     2     4 am  
     4     3    29 1   
     5     3    30 1   
     6     3    31 1   
     7     4     5 1   
     8     4    32 1   
     9     5     6 1   
    10     5     8 1   
    11     5    33 1   
    12     6     7 2   
    13     6    22 1   
    14     7    26 1   
    15     7    34 1   
    16     8     9 1   
    17     8    35 1   
    18     8    36 1   
    19     9    10 1   
    20     9    37 1   
    21     9    38 1   
    22    10    11 ar  
    23    10    21 ar  
    24    11    12 ar  
    25    11    39 1   
    26    12    13 ar  
    27    12    19 1   
    28    13    14 ar  
    29    13    17 1   
    30    14    15 1   
    31    14    21 ar  
    32    15    16 1   
    33    16    40 1   
    34    16    41 1   
    35    16    42 1   
    36    17    18 1   
    37    18    43 1   
    38    18    44 1   
    39    18    45 1   
    40    19    20 1   
    41    20    46 1   
    42    20    47 1   
    43    20    48 1   
    44    21    22 1   
    45    22    23 2   
    46    23    24 1   
    47    23    49 1   
    48    24    25 2   
    49    24    50 1   
    50    25    26 1   
    51    25    28 1   
    52    26    27 2   
    53    28    51 1   
@<TRIPOS>SUBSTRUCTURE
     1 2SJ         1 TEMP              0 ****  ****    0 ROOT
