@<TRIPOS>MOLECULE
BRD4, Ligand 7
   37    40     1     0     0
SMALL
Current Charge


@<TRIPOS>ATOM
      1 ClA          3.2590     2.9010    13.4290 Cl         1 08K      -0.074400
      2 CAP          2.9360     1.2890    12.8120 C.ar       1 08K       0.006400
      3 CAJ          2.3430     0.3620    13.6330 C.ar       1 08K      -0.083000
      4 CAS          2.0690    -0.9160    13.1160 C.ar       1 08K      -0.177500
      5 CAO          1.4040    -1.9100    14.0170 C.2        1 08K       0.250000
      6 CAQ          0.2390    -1.4510    14.8530 C.ar       1 08K      -0.162500
      7 CAG         -0.5130    -0.3110    14.5260 C.ar       1 08K      -0.100500
      8 CAE         -1.6410     0.0420    15.2720 C.ar       1 08K      -0.134000
      9 CAC         -2.0370    -0.7510    16.3420 C.ar       1 08K      -0.116000
     10 CAD         -1.3100    -1.9100    16.6370 C.ar       1 08K      -0.134000
     11 CAF         -0.1850    -2.2490    15.9160 C.ar       1 08K      -0.100500
     12 NAL          1.7010    -3.1700    13.9680 N.2        1 08K      -0.248400
     13 NAK          2.7470    -3.7670    13.1430 N.pl3      1 08K       0.013200
     14 C23          3.4820    -4.9110    13.6300 C.3        1 08K       0.009600
     15 CAT          2.4970    -3.6210    11.8170 C.2        1 08K       0.410000
     16 NAV          2.1950    -2.4930    11.2130 N.pl3      1 08K      -0.275800
     17 CAR          1.8170    -2.7700     9.9500 C.2        1 08K       0.380800
     18 CAA          1.4340    -1.8400     8.8530 C.3        1 08K      -0.122400
     19 NAM          1.8190    -4.0880     9.8010 N.2        1 08K      -0.339000
     20 NAN          2.2650    -4.6660    11.0030 N.2        1 08K      -0.351000
     21 CAU          2.4030    -1.2480    11.7870 C.ar       1 08K       0.041800
     22 CAI          3.0600    -0.2560    11.0340 C.ar       1 08K      -0.141000
     23 CAH          3.3050     1.0110    11.5140 C.ar       1 08K      -0.098000
     24 H            2.1040     0.5980    14.6090 H          1 08K       0.167000
     25 H1          -0.2290     0.2740    13.7240 H          1 08K       0.142500
     26 H2          -2.1780     0.8890    15.0290 H          1 08K       0.137000
     27 H3          -2.8570    -0.4890    16.9120 H          1 08K       0.135000
     28 H4          -1.6220    -2.5210    17.4080 H          1 08K       0.137000
     29 H5           0.3470    -3.0980    16.1640 H          1 08K       0.142500
     30 H6           4.2020    -5.2100    12.8980 H          1 08K       0.060033
     31 H7           2.8040    -5.7180    13.8150 H          1 08K       0.060033
     32 H8           3.9840    -4.6520    14.5390 H          1 08K       0.060033
     33 H9           1.1890    -2.4030     7.9770 H          1 08K       0.064367
     34 H10          2.2530    -1.1850     8.6390 H          1 08K       0.064367
     35 H11          0.5850    -1.2630     9.1550 H          1 08K       0.064367
     36 H12          3.3720    -0.4890    10.0780 H          1 08K       0.154000
     37 H13          3.7500     1.7290    10.9210 H          1 08K       0.157000
@<TRIPOS>BOND
     1     1     2 1   
     2     2     3 ar  
     3     2    23 ar  
     4     3     4 ar  
     5     3    24 1   
     6     4     5 1   
     7     4    21 ar  
     8     5     6 1   
     9     5    12 2   
    10     6     7 ar  
    11     6    11 ar  
    12     7     8 ar  
    13     7    25 1   
    14     8     9 ar  
    15     8    26 1   
    16     9    10 ar  
    17     9    27 1   
    18    10    11 ar  
    19    10    28 1   
    20    11    29 1   
    21    12    13 1   
    22    13    14 1   
    23    13    15 1   
    24    14    30 1   
    25    14    31 1   
    26    14    32 1   
    27    15    16 1   
    28    15    20 2   
    29    16    17 1   
    30    16    21 1   
    31    17    18 1   
    32    17    19 2   
    33    18    33 1   
    34    18    34 1   
    35    18    35 1   
    36    19    20 1   
    37    21    22 ar  
    38    22    23 ar  
    39    22    36 1   
    40    23    37 1   
@<TRIPOS>SUBSTRUCTURE
     1 08K         1 TEMP              0 ****  ****    0 ROOT
