@<TRIPOS>MOLECULE
BRD4, Ligand 10
   45    48     1     0     0
SMALL
Current Charge


@<TRIPOS>ATOM
      1 C23         -0.4560    -0.7180    14.5920 C.ar       1 1XB      -0.096000
      2 C28         -0.0210    -2.3470    16.2980 C.ar       1 1XB      -0.096000
      3 C24         -1.6270    -0.3260    15.2100 C.ar       1 1XB      -0.130500
      4 C27         -1.1970    -1.9620    16.9150 C.ar       1 1XB      -0.130500
      5 C8           2.3920    -2.4660    11.6170 C.2        1 1XB      -0.253600
      6 C22          0.3470    -1.7090    15.1310 C.ar       1 1XB      -0.133900
      7 C5           2.1870    -1.0500    13.5970 C.2        1 1XB      -0.210900
      8 C3           2.4960     0.2850    14.0180 C.2        1 1XB      -0.064300
      9 C25         -1.9890    -0.9610    16.3800 C.ar       1 1XB       0.024400
     10 C6           2.5060    -1.2410    12.2620 C.2        1 1XB      -0.018100
     11 C9           2.7210    -3.6030    12.3080 C.2        1 1XB       0.263000
     12 C12          2.0480    -2.8820    10.3070 C.2        1 1XB       0.342600
     13 C2           3.0530     1.0370    12.9970 C.2        1 1XB      -0.125400
     14 C21          1.5800    -2.0950    14.4180 C.2        1 1XB       0.580500
     15 C17          3.9020    -5.1620    15.5670 C.2        1 1XB       0.660100
     16 C14          3.1440    -3.7250    13.7230 C.3        1 1XB       0.108200
     17 C4           2.2970     0.8110    15.3840 C.3        1 1XB      -0.039800
     18 C13          1.6290    -2.0830     9.1420 C.3        1 1XB      -0.135400
     19 C1           3.5140     2.4400    13.0160 C.3        1 1XB      -0.023800
     20 C16          3.5220    -5.1320    14.1180 C.3        1 1XB      -0.140400
     21 N11          2.1540    -4.2160    10.2220 N.2        1 1XB      -0.355300
     22 N20          1.9630    -3.3410    14.4970 N.2        1 1XB      -0.615900
     23 N18          3.7400    -6.4120    16.1060 N.am       1 1XB      -0.654000
     24 O19          4.3180    -4.1940    16.1890 O.2        1 1XB      -0.622100
     25 O10          2.5670    -4.6750    11.4770 O.3        1 1XB      -0.096100
     26 S7           3.1830     0.1500    11.5300 S.3        1 1XB       0.075200
     27 Cl2         -3.4570    -0.4830    17.1650 Cl         1 1XB      -0.088400
     28 H           -0.1730    -0.2630    13.7100 H          1 1XB       0.148000
     29 H1           0.5670    -3.0930    16.7000 H          1 1XB       0.148000
     30 H2          -2.2150     0.4210    14.8080 H          1 1XB       0.151000
     31 H3          -1.4890    -2.4280    17.7880 H          1 1XB       0.151000
     32 H4           4.0110    -3.1210    13.8920 H          1 1XB       0.092700
     33 H5           2.6100     1.8340    15.4220 H          1 1XB       0.051700
     34 H6           2.8760     0.2350    16.0760 H          1 1XB       0.051700
     35 H7           1.2610     0.7450    15.6440 H          1 1XB       0.051700
     36 H8           1.4480    -2.7320     8.3110 H          1 1XB       0.062367
     37 H9           2.4020    -1.3880     8.8900 H          1 1XB       0.062367
     38 H10          0.7330    -1.5490     9.3790 H          1 1XB       0.062367
     39 H11          3.8920     2.7040    12.0510 H          1 1XB       0.050700
     40 H12          4.2890     2.5510    13.7450 H          1 1XB       0.050700
     41 H13          2.6950     3.0810    13.2660 H          1 1XB       0.050700
     42 H14          4.3510    -5.4580    13.5250 H          1 1XB       0.086200
     43 H15          2.6880    -5.7830    13.9560 H          1 1XB       0.086200
     44 H16          3.4000    -7.1480    15.5480 H          1 1XB       0.312000
     45 H17          3.9640    -6.5730    17.0510 H          1 1XB       0.312000
@<TRIPOS>BOND
     1     1     3 ar  
     2     1     6 ar  
     3     1    28 1   
     4     2     4 ar  
     5     2     6 ar  
     6     2    29 1   
     7     3     9 ar  
     8     3    30 1   
     9     4     9 ar  
    10     4    31 1   
    11     5    10 1   
    12     5    11 2   
    13     5    12 1   
    14     6    14 1   
    15     7     8 1   
    16     7    10 2   
    17     7    14 1   
    18     8    13 2   
    19     8    17 1   
    20     9    27 1   
    21    10    26 1   
    22    11    16 1   
    23    11    25 1   
    24    12    18 1   
    25    12    21 2   
    26    13    19 1   
    27    13    26 1   
    28    14    22 2   
    29    15    20 1   
    30    15    23 am  
    31    15    24 2   
    32    16    20 1   
    33    16    22 1   
    34    16    32 1   
    35    17    33 1   
    36    17    34 1   
    37    17    35 1   
    38    18    36 1   
    39    18    37 1   
    40    18    38 1   
    41    19    39 1   
    42    19    40 1   
    43    19    41 1   
    44    20    42 1   
    45    20    43 1   
    46    21    25 1   
    47    23    44 1   
    48    23    45 1   
@<TRIPOS>SUBSTRUCTURE
     1 1XB         1 TEMP              0 ****  ****    0 ROOT
