@<TRIPOS>MOLECULE
BRD4, Ligand 1
   26    28     1     0     0
SMALL
Current Charge


@<TRIPOS>ATOM
      1 N            2.7960    -3.1170    11.5320 N.pl3      1 L8A       0.014200
      2 N1           2.5010    -4.1570     9.3850 N.2        1 L8A      -0.623000
      3 N2           3.1660    -3.4780    12.7880 N.2        1 L8A      -0.574100
      4 N3           3.1910    -5.2940    11.4140 N.2        1 L8A      -0.354300
      5 C            2.4400    -1.8530    11.0440 C.2        1 L8A       0.115700
      6 C1           2.1160    -1.7280     9.7460 C.2        1 L8A      -0.310300
      7 C2           2.8220    -4.2440    10.7070 C.2        1 L8A       0.393500
      8 C3           2.1730    -2.9820     8.9350 C.2        1 L8A       0.465600
      9 C4           1.8140    -2.8670     7.4750 C.3        1 L8A      -0.158400
     10 C5           3.3840    -4.7830    12.6560 C.2        1 L8A       0.519200
     11 C6           2.4000    -0.6670    11.9180 C.ar       1 L8A      -0.073000
     12 C7           3.0530     0.5050    11.5340 C.ar       1 L8A      -0.089000
     13 C8           3.0160     1.6280    12.3610 C.ar       1 L8A      -0.135500
     14 C9           2.3260     1.5790    13.5730 C.ar       1 L8A      -0.107000
     15 C10          1.6740     0.4080    13.9570 C.ar       1 L8A      -0.135500
     16 C11          1.7100    -0.7140    13.1300 C.ar       1 L8A      -0.089000
     17 H            1.8440    -0.8220     9.3340 H          1 L8A       0.165000
     18 H1           1.8940    -3.8280     7.0110 H          1 L8A       0.063700
     19 H2           2.4830    -2.1830     6.9960 H          1 L8A       0.063700
     20 H3           0.8100    -2.5080     7.3820 H          1 L8A       0.063700
     21 H4           3.6820    -5.3710    13.4500 H          1 L8A       0.081800
     22 H5           3.5640     0.5410    10.6380 H          1 L8A       0.145000
     23 H6           3.4990     2.4950    12.0770 H          1 L8A       0.139000
     24 H7           2.2980     2.4090    14.1850 H          1 L8A       0.137000
     25 H8           1.1650     0.3720    14.8540 H          1 L8A       0.139000
     26 H9           1.2260    -1.5800    13.4140 H          1 L8A       0.145000
@<TRIPOS>BOND
     1     1     3 1   
     2     1     5 1   
     3     1     7 1   
     4     2     7 1   
     5     2     8 2   
     6     3    10 2   
     7     4     7 2   
     8     4    10 1   
     9     5     6 2   
    10     5    11 1   
    11     6     8 1   
    12     6    17 1   
    13     8     9 1   
    14     9    18 1   
    15     9    19 1   
    16     9    20 1   
    17    10    21 1   
    18    11    12 ar  
    19    11    16 ar  
    20    12    13 ar  
    21    12    22 1   
    22    13    14 ar  
    23    13    23 1   
    24    14    15 ar  
    25    14    24 1   
    26    15    16 ar  
    27    15    25 1   
    28    16    26 1   
@<TRIPOS>SUBSTRUCTURE
     1 L8A         1 TEMP              0 ****  ****    0 ROOT
